P6
# Generated by OpenCV 4.2.0
32 32
255
ooAbc6]_5^_8aa;cb=]`<^f?kmDztH|MRQZvMxjDd^=PQ4BD-;?,5:+4:-5</6>18?0;A/CI7RQAVN>RI8JF5?>/rsEkl@fg>cd>cb?c`>\]=]b?ijC{uJPRVUSPxMpnJ`aCPT>>C56;/4:/4;/5</9@1=E6FI9OK;OI9FD4=?0wyKqrFllDigBgc@d^=[Z:\_;dd>rlCxKRRSRMwIrmFbbAVZ@EI6=B3:@29?19A2>G5FQ?JP=NM:KI6BD2<A1~RtsIqnHpkGogDmcAc\:_[7ga<ne=oCOLRN{H}sDnk@bb=V[=LP8EJ5AF4=C2>E1IR<WbK^dLdbK_[EPO9BD1TtrGtnFwmHxkHxhCob<h]6qd=vg>mA|LLSQO}LvvHknCbiC^cCY^AQU<HM6GM6OW>]gNloTunTpfN^WAGC/P}vF{pD}nGmHjB}i=uc8zh?oDvG~KRVWYXUS~X~W}~WqpN``BXY=QV=W`EhjMofKj\F\Q=D=*OP|KuIrIrEwEj<mAvI}MOTSQPQV]kkjauQlaBXY=S^A[_A`[?\Q;NF3@:&Z\ZWURQsCrFrIpImIgEw`AhW9VN2NQ5PZ>T_BjvXmqndrOb^:[hE[b?^\=_X>VQ:E@)ZYXTPOLyHpC{e?n[<fS:`J8T@3I7,?2)60)20*54-9:.UO>qdMsV}Z[}{NqvLjlDca>ZW9NO4DG,QPRUWWW|PoHu^?^L5N>/G9.D4-D3.C3/A2/>0-;/-9/):1'E=/PK8ZY@ghIutPvsJusFkkA\^:MT3DN.}}M|L}K~KK}L|MqJzbBdQ:RB5H:4F:6I>;OCAQFERGGPEEI?@D:9=4092+<8.DC6OQ=cbFrnG~LO~zOvtNrrL}}MQQ~MyHqDyi@m^=_Q8RE5J>5F:8H<;OGESNMWRRYUTXTTUPQNIHHA@A86;40<81GG8\[EvsP]flokRVZV|MnFm^>\P8OE4H>4D:6C99D;:LFDMJGQQMTTQRRPRQONLJKFEF?>=75951DB7YVDwtVdotsnYTYX|OkIn[A\L:OA7F<6B:8A<<A=<FC@EC@HHDJKGFIFFGEEDCBA@@>>;99:65B=4OJ;mgN}[eeZU`UP{NrK|cDlV>^J;O?8G<9F?>EBABBBDDDCBCCDEADE?DEACC??@:;=8:;999;86?90GA2ZS>}mSy[vTwiE`];q`QqIzfDqZ>cP:UE8K>9I>>ICBEDC:>>;?@=AC<@E<BG?DH@DFBEH=?D>?B==>;:7:8.B?/EC1UO;f[Fj_G\W>PO8ͮwçpdVpJr_@^M6QC7I>;I?@JEFHIJBIJ7?@4=?4<@5=A9AC=DE>DE?CD@AA??><<8990<=.>@0BE2EI4HL6IK5CD1˯rkdZyN|fEeT<OC6F<;IADOJMPPROTVFLN@FI:@D7=A8?A<BC>CC@CB@@>==::;6<>4EF8OO>OO<ON:LK7FE2@>.a^adauSkY@UJ<F>;F?AKFHLKLJMNHKLCFI>BF:@C9@B;AB=BB@CB??>::94847<4IJ<XUDa\I`YEXQ<MG3C>,VUYbiekOgUEPB>H==IBBJGGEFGEFGADF?BG>BF=BC<??;>>=>?===999353581EG9VUE`]JeaL`[DQL5D>+WTTZch{]{^K_G@N=:J?=LGFJIIJKLGKMGKNHKMGIJDEE?@@=<==;;97865277/=@1IN=QVB[^I[]EON7DA-YURRV[{ZcLjM@S>7J<7MEBOJJTSSTWWUXYWWWUTSPNNIGGC@@>;:;76962<:0@@1GK8MR<PU?NR<HI4A@/PONLM|PtOjMtXEYF8I;2H<6KA>QKKXVV\YX^YX\VUUONOHHFA@?;9=95?<5FB6WQ?e\Ga[CXT<LJ5@@.69+N|I{IMTY^ZnQq^GYJ8D6(D5,B72IA>NFEPGFOECLA@I><?86?:6A=6GC7VQ>uhOmSpUqdLUN:<<,/6*L|J{xG~zHMRSbYsSxgK`N8L8)B5,91,81/;32<42<41>42>85A>7HF:RP>][BolJ|\vqSmgMYUB;=/,2*}LyLz{MvyHxuAyC}EQXXwQjHnV;WG3JA1B<.A;/F@3JC6KD5KF5LI7NM:RR<WX>Z`BhsUekMddJWU@;>.-3(yKwM}T~RLLLQTTR}OuNtdCbW:]U;`YAhaJzoW{_rQugHg\@YS:PQ7OV<[iN^gJccHZW@BD004'NvI|Q}QLOQVXWTQxP|kIm_@eZ>d\AtkOqysblNcW=NM5GM6M\D[bIc`H^XBML99</TLN}M{I~LQ[][UuLzhEn\?cS8ZM5WM4e[@~_gkaoOcV=ML5DJ5BN9PVAZXDYT@NL;@A5ZTPONNT\\XuNvc?gU7[J1RA+M@*LA+RG.cU7vd>n@lDn`AXR:KL6HK8AG4EI6JL:JK9ED4?>2ZTQRUVWV|TqMua@cP3XG.P@+M=+J=+H=+I?+LA,RF+UK+VM0SN6ON9KM9KM9HK7DH4@D1>B0>?.=<-yDEz@}EOOyKqHvgCk\=`R7WJ2NB.K@0I>/G>/E>0D>0G@2LB2MD2OG5OI7NJ8ML9KM8IO:EL7BI5?E3>B1=@/